! the first lines with "$npart" and "$f" will be added by "ElmerScanManager.py" 
! for example:	$npart = 77
! for example:	$f = 56.7 		! Hz

Header
  CHECK KEYWORDS Warn
  Mesh DB "." "."
  Include Path ""
  Results Directory ""
End

! ---  This is an Elmer FEM simulation setup file intended ONLY for use with "ElmerScanManager.py". See a tutorial linked to this example project.
!
!  Source & License can be found here:	https://github.com/SDX-LV/Basic-Audio-SimulationS 
! 	based on example provided by: https://computational-acoustics.gitlab.io/website/posts/22-home-studio-part-4



Simulation
  Max Output Level = 5
  Coordinate System = Cartesian
  Coordinate Mapping(3) = 1 2 3
  Simulation Type = Scanning
  Steady State Max Iterations = 1
  Output Intervals = 1
  Timestepping Method = BDF
  BDF Order = 1
  Timestep intervals = 1
  Coordinate Scaling = 0.001
  Solver Input File = case.sif
  Post File = "case.vtu"
  vtu: fileindex offset = Integer $npart - 1
  $ p = 1.205
  $ U = 10
  $ c = 343.0
  $ r = 2.25
End

Constants
  Gravity(4) = 0 -1 0 9.82
  Stefan Boltzmann = 5.67e-08
  Permittivity of Vacuum = 8.8542e-12
  Boltzmann Constant = 1.3807e-23
  Unit Charge = 1.602e-19
End

Body 1
  Target Bodies(1) = 1
  Name = "Body 1"
  Equation = 1
  Material = 1
End

Solver 1
  Equation = Helmholtz Equation
  Procedure = "HelmholtzSolve" "HelmholtzSolver"
  Variable = -dofs 2 Pressure Wave
  Exec Solver = Always
  Stabilize = True
  Bubbles = False
  Lumped Mass Matrix = False
  Optimize Bandwidth = True
  Steady State Convergence Tolerance = 1.0e-5
  Nonlinear System Convergence Tolerance = 1.0e-7
  Nonlinear System Max Iterations = 1
  Nonlinear System Newton After Iterations = 3
  Nonlinear System Newton After Tolerance = 1.0e-3
  Nonlinear System Relaxation Factor = 1
  Linear System Solver = Iterative
  Linear System Iterative Method = BiCGStabl
  Linear System Max Iterations = 500
  Linear System Convergence Tolerance = 1.0e-10
  BiCGstabl polynomial degree = 2
  Linear System Preconditioning = ILUT
  Linear System ILUT Tolerance = 1.0e-3
  Linear System Abort Not Converged = True
  Linear System Residual Output = 10
  Linear System Precondition Recompute = 1
  Element = "p:2"
End


Solver 2
  Procedure = "SaveData" "SaveScalars"
  Filename = case_Frequency_$npart$.csv
End


Equation 1
  Name = "Helmholtz"
  Frequency = Variable time; Real MATC "f(tx - 1)"
  ! unused examle--- Frequency = Variable "time"; Real MATC "f0*1.1^(n0+tx-1)"
  Active Solvers(1) = 1
End

Material 1
  Name = "Air (room temperature)"
  Viscosity = 1.983e-5
  Heat expansion Coefficient = 3.43e-3
  Heat Conductivity = 0.0257
  Relative Permittivity = 1.00059
  Sound speed = 343.0
  Heat Capacity = 1005.0
  Density = Real MATC "p"
End



! ----- names for boundaries -----
! - note multiple Boundary Condition groups can be included in single "Target Boundaries" by specifiing number of groups and their IDs: 
! - example for 3 groups:		Target Boundaries(3) = 6 3 8 


Boundary Condition 1
  Target Boundaries(1) = 2 
  Name = "Radiator_Source"
  Wave Flux 2 = Variable time; Real MATC "2 * pi * f(tx - 1) * p * U"
  ! - note this is the frequency dependent oscilation formula of the pulsating sphere
End

Boundary Condition 2
  Target Boundaries(1) = 1 
  Name = "Outlet"
  Wave impedance 1 = Real MATC "((2 * pi * f * r)^2) / (c * (1 + (((2 * pi * f * r)^2) / (c^2))))"
  Wave impedance 2 = Real MATC "(2 * pi * f * r) / (1 + (((2 * pi * f * r)^2) / (c^2)))"
End
